*Heading
** Job name: SPT Model name: SPT_Model
** Generated by: Abaqus/CAE 2018
*Preprint, echo=NO, model=NO, history=NO, contact=NO
**
** PARTS
**
*Part, name=Indenter
*End Part
**  
*Part, name=LowerDie
*End Part
**  
*Part, name=Plate
*Node
      1,          2.5,           0.
      2,          2.5,          0.5
      3,           0.,          0.5
      4,           0.,           0.
      5,           6.,           0.
      6,           6.,          0.5
      7,          2.5, 0.0500000007
      8,          2.5,  0.100000001
      9,          2.5,  0.150000006
     10,          2.5,  0.200000003
     11,          2.5,         0.25
     12,          2.5,  0.300000012
     13,          2.5,  0.349999994
     14,          2.5,  0.400000006
     15,          2.5,  0.449999988
     16,   2.45000005,          0.5
     17,    2.4000001,          0.5
     18,    2.3499999,          0.5
     19,   2.29999995,          0.5
     20,         2.25,          0.5
** ... 761 like lines cut
*Element, type=CAX4
  1,   1,   7, 170, 122
  2,   7,   8, 171, 170
  3,   8,   9, 172, 171
  4,   9,  10, 173, 172
  5,  10,  11, 174, 173
  6,  11,  12, 175, 174
  7,  12,  13, 176, 175
  8,  13,  14, 177, 176
  9,  14,  15, 178, 177
 10,  15,   2,  16, 178
 11, 122, 170, 179, 121
 12, 170, 171, 180, 179
 13, 171, 172, 181, 180
 14, 172, 173, 182, 181
 15, 173, 174, 183, 182
 16, 174, 175, 184, 183
 17, 175, 176, 185, 184
 18, 176, 177, 186, 185
 19, 177, 178, 187, 186
 20, 178,  16,  17, 187
** ... 680 like lines cut
*Nset, nset=Full_Plate_Set, generate
   1,  781,    1
*Elset, elset=Full_Plate_Set, generate
   1,  700,    1
*Nset, nset=Seed1_Set_(50)
   1,   2,   3,   4,  16,  17,  18,  19,  20,  21,  22,  23,  24,  25,  26,  27
  28,  29,  30,  31,  32,  33,  34,  35,  36,  37,  38,  39,  40,  41,  42,  43
  44,  45,  46,  47,  48,  49,  50,  51,  52,  53,  54,  55,  56,  57,  58,  59
  60,  61,  62,  63,  64,  74,  75,  76,  77,  78,  79,  80,  81,  82,  83,  84
  85,  86,  87,  88,  89,  90,  91,  92,  93,  94,  95,  96,  97,  98,  99, 100
 101, 102, 103, 104, 105, 106, 107, 108, 109, 110, 111, 112, 113, 114, 115, 116
 117, 118, 119, 120, 121, 122
*Elset, elset=Seed1_Set_(50)
   1,  10,  11,  20,  21,  30,  31,  40,  41,  50,  51,  60,  61,  70,  71,  80
  81,  90,  91, 100, 101, 110, 111, 120, 121, 130, 131, 140, 141, 150, 151, 160
 161, 170, 171, 180, 181, 190, 191, 200, 201, 210, 211, 220, 221, 230, 231, 240
 241, 250, 251, 260, 261, 270, 271, 280, 281, 290, 291, 300, 301, 310, 311, 320
 321, 330, 331, 340, 341, 350, 351, 360, 361, 370, 371, 380, 381, 390, 391, 400
 401, 410, 411, 420, 421, 430, 431, 440, 441, 450, 451, 460, 461, 470, 471, 480
 481, 490, 491, 500
*Nset, nset=Seed2_Set_(20b)
   1,   2,   5,   6, 123, 124, 125, 126, 127, 128, 129, 130, 131, 132, 133, 134
 135, 136, 137, 138, 139, 140, 141, 151, 152, 153, 154, 155, 156, 157, 158, 159
 160, 161, 162, 163, 164, 165, 166, 167, 168, 169
*Elset, elset=Seed2_Set_(20b)
 501, 510, 511, 520, 521, 530, 531, 540, 541, 550, 551, 560, 561, 570, 571, 580
 581, 590, 591, 600, 601, 610, 611, 620, 621, 630, 631, 640, 641, 650, 651, 660
 661, 670, 671, 680, 681, 690, 691, 700
*Nset, nset=Seed3_Set_(10)
   1,   2,   3,   4,   5,   6,   7,   8,   9,  10,  11,  12,  13,  14,  15,  65
  66,  67,  68,  69,  70,  71,  72,  73, 142, 143, 144, 145, 146, 147, 148, 149
 150,
*Elset, elset=Seed3_Set_(10)
   1,   2,   3,   4,   5,   6,   7,   8,   9,  10, 491, 492, 493, 494, 495, 496
 497, 498, 499, 500, 501, 502, 503, 504, 505, 506, 507, 508, 509, 510, 691, 692
 693, 694, 695, 696, 697, 698, 699, 700
*Elset, elset=_Slave_LowPlate_S4, internal, generate
   1,  491,   10
*Elset, elset=_Slave_LowPlate_S2, internal, generate
 510,  700,   10
*Surface, type=ELEMENT, name=Slave_LowPlate
_Slave_LowPlate_S4, S4
_Slave_LowPlate_S2, S2
*Elset, elset=_Slave_UpPlate_S2, internal, generate
  10,  500,   10
*Elset, elset=_Slave_UpPlate_S4, internal, generate
 501,  691,   10
*Surface, type=ELEMENT, name=Slave_UpPlate
_Slave_UpPlate_S2, S2
_Slave_UpPlate_S4, S4
** Section: MaterialSection
*Solid Section, elset=Full_Plate_Set, material=Mat
,
*End Part
**  
*Part, name=UperDie
*End Part
**  
**
** ASSEMBLY
**
*Assembly, name=Assembly
**  
*Instance, name=Indenter-1, part=Indenter
*Node
      1,   1.20000005,   1.70000005,           0.
*Nset, nset=Indenter-1-RefPt_, internal
1, 
*Nset, nset=RefPoint
 1,
*Surface, type=SEGMENTS, name=Master_Indenter
START,          1.2,          1.7
 CIRCL,           0.,          0.5,           0.,          1.7
*Rigid Body, ref node=Indenter-1-RefPt_, analytical surface=Master_Indenter
*End Instance
**  
*Instance, name=LowerDie-1, part=LowerDie
*Node
      1,           7.,           0.,           0.
*Nset, nset=LowerDie-1-RefPt_, internal
1, 
*Nset, nset=RefPoint
 1,
*Surface, type=SEGMENTS, name=Master_LowDie
START,           2.,         -0.5
 LINE,           2.,         -0.2
 CIRCL,          2.2,           0.,          2.2,         -0.2
 LINE,           7.,           0.
*Rigid Body, ref node=LowerDie-1-RefPt_, analytical surface=Master_LowDie
*End Instance
**  
*Instance, name=Plate-1, part=Plate
*End Instance
**  
*Instance, name=UperDie-1, part=UperDie
*Node
      1,           7.,          0.5,           0.
*Nset, nset=UperDie-1-RefPt_, internal
1, 
*Nset, nset=RefPoint
 1,
*Surface, type=SEGMENTS, name=Master_UpDie
START,           7.,          0.5
 LINE,           2.,          0.5
*Rigid Body, ref node=UperDie-1-RefPt_, analytical surface=Master_UpDie
*End Instance
**  
*End Assembly
** 
** MATERIALS
** 
*Material, name=Mat
*Elastic
200000., 0.33
*Plastic
400.,0.
** 
** INTERACTION PROPERTIES
** 
*Surface Interaction, name=Friction_Contact
1.,
*Friction, slip tolerance=0.005
 0.1,
** 
** BOUNDARY CONDITIONS
** 
** Name: Fixed_Lower Type: Symmetry/Antisymmetry/Encastre
*Boundary
LowerDie-1.RefPoint, ENCASTRE
** Name: Hold_Indenter Type: Displacement/Rotation
*Boundary
Indenter-1.RefPoint, 1, 1
Indenter-1.RefPoint, 6, 6
** Name: Hold_Upper Type: Displacement/Rotation
*Boundary
UperDie-1.RefPoint, 1, 1
UperDie-1.RefPoint, 6, 6
** 
** INTERACTIONS
** 
** Interaction: Ind-Plate_Contact
*Contact Pair, interaction=Friction_Contact, type=SURFACE TO SURFACE
Plate-1.Slave_UpPlate, Indenter-1.Master_Indenter
** Interaction: LowDie-Plate_Contact
*Contact Pair, interaction=Friction_Contact, type=SURFACE TO SURFACE
Plate-1.Slave_LowPlate, LowerDie-1.Master_LowDie
** Interaction: UpDie-Plate_Contact
*Contact Pair, interaction=Friction_Contact, type=SURFACE TO SURFACE
Plate-1.Slave_UpPlate, UperDie-1.Master_UpDie
** ----------------------------------------------------------------
** 
** STEP: Clamping
** 
*Step, name=Clamping, nlgeom=YES
*Static
1., 1., 1e-05, 1.
**
** BOUNDARY CONDITIONS
** Hold vertical displacement of indenter
*Boundary
Indenter-1.RefPoint,2,2,0
** 
** LOADS
** 
** Name: Clamping_Load   Type: Concentrated force
*Cload
UperDie-1.RefPoint, 2, -10000.
** 
** OUTPUT REQUESTS
** 
*Restart, write, frequency=0
** 
** FIELD OUTPUT: F-Output-1
** 
*Output, field, variable=PRESELECT
** 
** HISTORY OUTPUT: H-Output-1
** 
*Output, history, variable=PRESELECT
*End Step
** ----------------------------------------------------------------
** 
** STEP: Punching
** 
*Step, name=Punching, nlgeom=YES, inc=10000
*Static
0.01, 1., 1e-05, 1.
** 
** BOUNDARY CONDITIONS
** 
** Name: Punch_Displacement Type: Displacement/Rotation
*Boundary
Indenter-1.RefPoint, 2, 2, -2.
** 
** OUTPUT REQUESTS
** 
*Restart, write, frequency=0
** 
** FIELD OUTPUT: F-Output-1
** 
*Output, field, variable=PRESELECT
** 
** HISTORY OUTPUT: H-Output-1
** 
*Output, history, variable=PRESELECT
** 
** HISTORY OUTPUT: Reaction_Force
** 
*Output, history, time interval=0.02
*Node Output, nset=Indenter-1.RefPoint
RF2, U2
*Node Print, nset=Indenter-1.RefPoint
RF2, U2
*End Step
